* 
* Copyright 2026 by Artisan Components, Inc.
* This file has been provided pursuant to a License Agreement
* containing restrictions on its use.  This file contains valuable
* trade secrets and proprietary information of Artisan Components,
* Inc. and is protected by law.
* 
* Generated by bif2cdl v3.4.15
* Version: r0p0-00eac0
* Name: sram_sp_hdc_svt_rvt_hvt Compiler|TSMC cln65gplus 65nm Process, 0.525um2 Bitcell
* Comment: sram_A
* Configuration:  -instname "sram_A" -words 1024 -bits 32 -frequenc\
* Configuration: y 100 -mux 8 -pipeline off -write_mask off -wp_siz\
* Configuration: e 8 -write_thru on -top_layer "m5-m9" -power_type \
* Configuration: otc -redundancy off -rcols 2 -rrows 2 -bmux off -s\
* Configuration: er none -back_biasing off -power_gating off -reten\
* Configuration: tion on -ema on -atf off -cust_comment "sram_A" -b\
* Configuration: us_notation on -left_bus_delim "[" -right_bus_deli\
* Configuration: m "]" -pwr_gnd_rename "VDDPE:VDD,VDDCE:VDD,VSSE:VS\
* Configuration: S" -prefix "" -name_case upper -check_instname on \
* Configuration: -diodes on -drive 6 -dnw off -asvm on -corners tt_\
* Configuration: 1p00v_1p00v_25c,ss_0p90v_0p90v_m40c,ss_0p90v_0p90v\
* Configuration: _125c,ff_1p10v_1p10v_m40c,ff_1p10v_1p10v_125c,ff_1\
* Configuration: p10v_1p10v_0c
* Codefile: 
* 
*
** begin lvs.header
** $Revision: 1.1 $
** end lvs.header
*.BIPOLAR
*.DIOAREA
*.DIOPERI
*
****
.SUBCKT sram_AFPIO8 BWEI BWEN CREN D DNI Q Q_ RET RETN_TERM TIEHIGH TIELOW VSS
+  VDD
** sram_AFPIO8: 11 flat devices **
D10 VSS Q NDIO 1.024e-07U 1.28U $name=/D4
D7 VSS BWEN NDIO 1.024e-07U 1.28U $name=/D7
D8 VSS D NDIO 1.024e-07U 1.28U $name=/D6
D9 VSS CREN NDIO 1.024e-07U 1.28U $name=/D5
M0 Q Q_ VSS VSS NCH W=2.8U L=0.06U M=1 $name=/qdrv/N00
M1 VDD Q_ Q VDD PCH W=4.14U L=0.06U M=1 $name=/qdrv/P00
M2 Q RET VSS VSS NCH_HVT W=0.15U L=0.06U M=1 $name=/N15/N00
M3 DNI D VSS VSS NCH_HVT W=0.15U L=0.06U M=1 $name=/I238/N00
M4 VDD D DNI VDD PCH_HVT W=0.15U L=0.06U M=1 $name=/I238/P00
M5 BWEI BWEN VSS VSS NCH_HVT W=0.25U L=0.06U M=1 $name=/I237/N00
M6 VDD BWEN BWEI VDD PCH_HVT W=0.5U L=0.06U M=1 $name=/I237/P00
.ENDS sram_AFPIO8
****
.SUBCKT sram_AFPIO8RR16 BWEI_0 BWEI_1 BWEI_2 BWEI_3 BWEI_4 BWEI_5 BWEI_6
+  BWEI_7 BWEI_8 BWEI_9 BWEI_10 BWEI_11 BWEI_12 BWEI_13 BWEI_14 BWEI_15 BWEN
+  CREN DNI_0 DNI_1 DNI_2 DNI_3 DNI_4 DNI_5 DNI_6 DNI_7 DNI_8 DNI_9 DNI_10
+  DNI_11 DNI_12 DNI_13 DNI_14 DNI_15 D_0 D_1 D_2 D_3 D_4 D_5 D_6 D_7 D_8 D_9
+  D_10 D_11 D_12 D_13 D_14 D_15 Q_0 Q_1 Q_2 Q_3 Q_4 Q_5 Q_6 Q_7 Q_8 Q_9 Q_10
+  Q_11 Q_12 Q_13 Q_14 Q_15 Q__0 Q__1 Q__2 Q__3 Q__4 Q__5 Q__6 Q__7 Q__8 Q__9
+  Q__10 Q__11 Q__12 Q__13 Q__14 Q__15 RETN_TERM_0 RETN_TERM_1 RETN_TERM_2
+  RETN_TERM_3 RETN_TERM_4 RETN_TERM_5 RETN_TERM_6 RETN_TERM_7 RETN_TERM_8
+  RETN_TERM_9 RETN_TERM_10 RETN_TERM_11 RETN_TERM_12 RETN_TERM_13
+  RETN_TERM_14 RETN_TERM_15 RET_0 RET_1 RET_2 RET_3 RET_4 RET_5 RET_6 RET_7
+  RET_8 RET_9 RET_10 RET_11 RET_12 RET_13 RET_14 RET_15 VSS VDD
** sram_AFPIO8RR16: 176 flat devices **
XRIGHTIO0 BWEI_0 BWEN CREN D_0 DNI_0 Q_0 Q__0 RET_0 RETN_TERM_0 CREN BWEN VSS
+  VDD sram_AFPIO8
XRIGHTIO1 BWEI_1 BWEN CREN D_1 DNI_1 Q_1 Q__1 RET_1 RETN_TERM_1 CREN BWEN VSS
+  VDD sram_AFPIO8
XRIGHTIO10 BWEI_10 BWEN CREN D_10 DNI_10 Q_10 Q__10 RET_10 RETN_TERM_10 CREN
+  BWEN VSS VDD sram_AFPIO8
XRIGHTIO11 BWEI_11 BWEN CREN D_11 DNI_11 Q_11 Q__11 RET_11 RETN_TERM_11 CREN
+  BWEN VSS VDD sram_AFPIO8
XRIGHTIO12 BWEI_12 BWEN CREN D_12 DNI_12 Q_12 Q__12 RET_12 RETN_TERM_12 CREN
+  BWEN VSS VDD sram_AFPIO8
XRIGHTIO13 BWEI_13 BWEN CREN D_13 DNI_13 Q_13 Q__13 RET_13 RETN_TERM_13 CREN
+  BWEN VSS VDD sram_AFPIO8
XRIGHTIO14 BWEI_14 BWEN CREN D_14 DNI_14 Q_14 Q__14 RET_14 RETN_TERM_14 CREN
+  BWEN VSS VDD sram_AFPIO8
XRIGHTIO2 BWEI_2 BWEN CREN D_2 DNI_2 Q_2 Q__2 RET_2 RETN_TERM_2 CREN BWEN VSS
+  VDD sram_AFPIO8
XRIGHTIO3 BWEI_3 BWEN CREN D_3 DNI_3 Q_3 Q__3 RET_3 RETN_TERM_3 CREN BWEN VSS
+  VDD sram_AFPIO8
XRIGHTIO4 BWEI_4 BWEN CREN D_4 DNI_4 Q_4 Q__4 RET_4 RETN_TERM_4 CREN BWEN VSS
+  VDD sram_AFPIO8
XRIGHTIO5 BWEI_5 BWEN CREN D_5 DNI_5 Q_5 Q__5 RET_5 RETN_TERM_5 CREN BWEN VSS
+  VDD sram_AFPIO8
XRIGHTIO6 BWEI_6 BWEN CREN D_6 DNI_6 Q_6 Q__6 RET_6 RETN_TERM_6 CREN BWEN VSS
+  VDD sram_AFPIO8
XRIGHTIO7 BWEI_7 BWEN CREN D_7 DNI_7 Q_7 Q__7 RET_7 RETN_TERM_7 CREN BWEN VSS
+  VDD sram_AFPIO8
XRIGHTIO8 BWEI_8 BWEN CREN D_8 DNI_8 Q_8 Q__8 RET_8 RETN_TERM_8 CREN BWEN VSS
+  VDD sram_AFPIO8
XRIGHTIO9 BWEI_9 BWEN CREN D_9 DNI_9 Q_9 Q__9 RET_9 RETN_TERM_9 CREN BWEN VSS
+  VDD sram_AFPIO8
XRIGHTIOEXT15 BWEI_15 BWEN CREN D_15 DNI_15 Q_15 Q__15 RET_15 RETN_TERM_15
+  CREN BWEN VSS VDD sram_AFPIO8
.ENDS sram_AFPIO8RR16
****
.SUBCKT sram_AFPAL_CTRL AI0 AI0N AI1 AI1N AI2 AI2N AI3 AI3N AI4 AI4N AI5 AI5N
+  AI6 AI6N AI7 AI7N AI8 AI8N AI9 AI9N AI10 AI10N AI11 AI11N AI12 AI12N AI13
+  AI13N BWEN CEI CEN CLK EMA0 EMA1 EMA2 IRET IRETN RDT RETN STOV TIEHIGH
+  TIELOW WBT WEI WEN VSS VDD
** sram_AFPAL_CTRL: 54 flat devices **
D10 VSS CLK NDIO 1.024e-07U 1.28U $name=/I2449/D1
D11 VSS CEN NDIO 1.024e-07U 1.28U $name=/I2449/D0
D4 VSS STOV NDIO 1.024e-07U 1.28U $name=/I2449/D7
D40 VSS AI5 NDIO 1.024e-07U 1.28U $name=/I2450/D9
D41 VSS AI4 NDIO 1.024e-07U 1.28U $name=/I2450/D8
D42 VSS AI6 NDIO 1.024e-07U 1.28U $name=/I2450/D7
D43 VSS AI7 NDIO 1.024e-07U 1.28U $name=/I2450/D6
D44 VSS AI9 NDIO 1.024e-07U 1.28U $name=/I2450/D5
D45 VSS AI8 NDIO 1.024e-07U 1.28U $name=/I2450/D4
D46 VSS AI10 NDIO 1.024e-07U 1.28U $name=/I2450/D3
D47 VSS AI11 NDIO 1.024e-07U 1.28U $name=/I2450/D2
D48 VSS AI1 NDIO 1.024e-07U 1.28U $name=/I2450/D13
D49 VSS AI0 NDIO 1.024e-07U 1.28U $name=/I2450/D12
D5 VSS EMA0 NDIO 1.024e-07U 1.28U $name=/I2449/D6
D50 VSS AI2 NDIO 1.024e-07U 1.28U $name=/I2450/D11
D51 VSS AI3 NDIO 1.024e-07U 1.28U $name=/I2450/D10
D52 VSS AI12 NDIO 1.024e-07U 1.28U $name=/I2450/D1
D53 VSS AI13 NDIO 1.024e-07U 1.28U $name=/I2450/D0
D6 VSS RETN NDIO 1.024e-07U 1.28U $name=/I2449/D3
D7 VSS WEN NDIO 1.024e-07U 1.28U $name=/I2449/D2
D8 VSS WBT NDIO 1.024e-07U 1.28U $name=/I2449/D12
D9 VSS RDT NDIO 1.024e-07U 1.28U $name=/I2449/D11
M0 WEI WEN VSS VSS NCH W=1.68U L=0.06U M=1 $name=/I2449/tnorwece/N00
M1 VDD WEN WEI VDD PCH W=2.3U L=0.06U M=1 $name=/I2449/tnorwece/P00
M12 AI7N AI7 VSS VSS NCH W=1.12U L=0.06U M=1 $name=/I2450/I9/N00
M13 VDD AI7 AI7N VDD PCH W=2.24U L=0.06U M=1 $name=/I2450/I9/P00
M14 AI6N AI6 VSS VSS NCH W=1.12U L=0.06U M=1 $name=/I2450/I8/N00
M15 VDD AI6 AI6N VDD PCH W=2.24U L=0.06U M=1 $name=/I2450/I8/P00
M16 AI5N AI5 VSS VSS NCH W=1.12U L=0.06U M=1 $name=/I2450/I7/N00
M17 VDD AI5 AI5N VDD PCH W=2.24U L=0.06U M=1 $name=/I2450/I7/P00
M18 AI0N AI0 VSS VSS NCH W=1.12U L=0.06U M=1 $name=/I2450/I60/N00
M19 VDD AI0 AI0N VDD PCH W=2.24U L=0.06U M=1 $name=/I2450/I60/P00
M2 CEI CEN VSS VSS NCH W=0.15U L=0.06U M=1 $name=/I2449/tceninv/N00
M20 AI2N AI2 VSS VSS NCH W=1.12U L=0.06U M=1 $name=/I2450/I4/N00
M21 VDD AI2 AI2N VDD PCH W=2.24U L=0.06U M=1 $name=/I2450/I4/P00
M22 AI1N AI1 VSS VSS NCH W=1.12U L=0.06U M=1 $name=/I2450/I3/N00
M23 VDD AI1 AI1N VDD PCH W=2.24U L=0.06U M=1 $name=/I2450/I3/P00
M24 AI13N AI13 VSS VSS NCH W=1.12U L=0.06U M=1 $name=/I2450/I15/N00
M25 VDD AI13 AI13N VDD PCH W=2.24U L=0.06U M=1 $name=/I2450/I15/P00
M26 AI12N AI12 VSS VSS NCH W=1.12U L=0.06U M=1 $name=/I2450/I14/N00
M27 VDD AI12 AI12N VDD PCH W=2.24U L=0.06U M=1 $name=/I2450/I14/P00
M28 AI11N AI11 VSS VSS NCH W=1.12U L=0.06U M=1 $name=/I2450/I13/N00
M29 VDD AI11 AI11N VDD PCH W=2.24U L=0.06U M=1 $name=/I2450/I13/P00
M3 VDD CEN CEI VDD PCH W=0.15U L=0.06U M=1 $name=/I2449/tceninv/P00
M30 AI10N AI10 VSS VSS NCH W=1.12U L=0.06U M=1 $name=/I2450/I12/N00
M31 VDD AI10 AI10N VDD PCH W=2.24U L=0.06U M=1 $name=/I2450/I12/P00
M32 AI9N AI9 VSS VSS NCH W=1.12U L=0.06U M=1 $name=/I2450/I11/N00
M33 VDD AI9 AI9N VDD PCH W=2.24U L=0.06U M=1 $name=/I2450/I11/P00
M34 AI8N AI8 VSS VSS NCH W=1.12U L=0.06U M=1 $name=/I2450/I10/N00
M35 VDD AI8 AI8N VDD PCH W=2.24U L=0.06U M=1 $name=/I2450/I10/P00
M36 AI3N AI3 VSS VSS NCH W=1.12U L=0.06U M=1 $name=/I2450/I1/N00
M37 VDD AI3 AI3N VDD PCH W=2.24U L=0.06U M=1 $name=/I2450/I1/P00
M38 AI4N AI4 VSS VSS NCH W=1.12U L=0.06U M=1 $name=/I2450/I0/N00
M39 VDD AI4 AI4N VDD PCH W=2.24U L=0.06U M=1 $name=/I2450/I0/P00
.ENDS sram_AFPAL_CTRL
****
.SUBCKT sram_AFPBCTRL32M8 AI0 AI0N AI1 AI1N AI2 AI2N AI3N AI4N AI5 AI5N AI6
+  AI6N AI7 AI7N AI8 AI8N AI9 AI9N AI10 AI10N AI11 AI11N AI12N AI13N CEI CEN
+  CLK EMA0 EMA1 EMA2 IRET IRETN RETN TIEHIGH TIELOW WEI WEN VSS VDD
** sram_AFPBCTRL32M8: 54 flat devices **
XINSTCTRL AI0 AI0N AI1 AI1N AI2 AI2N TIELOW AI3N TIELOW AI4N AI5 AI5N AI6 AI6N
+  AI7 AI7N AI8 AI8N AI9 AI9N AI10 AI10N AI11 AI11N TIELOW AI12N TIELOW AI13N
+  TIELOW CEI CEN CLK EMA0 EMA1 EMA2 IRET IRETN TIELOW RETN TIELOW TIEHIGH
+  TIELOW TIELOW WEI WEN VSS VDD sram_AFPAL_CTRL
.ENDS sram_AFPBCTRL32M8
****
.SUBCKT sram_AFPIO8RL16 BWEI_0 BWEI_1 BWEI_2 BWEI_3 BWEI_4 BWEI_5 BWEI_6
+  BWEI_7 BWEI_8 BWEI_9 BWEI_10 BWEI_11 BWEI_12 BWEI_13 BWEI_14 BWEI_15 BWEN
+  CREN DNI_0 DNI_1 DNI_2 DNI_3 DNI_4 DNI_5 DNI_6 DNI_7 DNI_8 DNI_9 DNI_10
+  DNI_11 DNI_12 DNI_13 DNI_14 DNI_15 D_0 D_1 D_2 D_3 D_4 D_5 D_6 D_7 D_8 D_9
+  D_10 D_11 D_12 D_13 D_14 D_15 Q_0 Q_1 Q_2 Q_3 Q_4 Q_5 Q_6 Q_7 Q_8 Q_9 Q_10
+  Q_11 Q_12 Q_13 Q_14 Q_15 Q__0 Q__1 Q__2 Q__3 Q__4 Q__5 Q__6 Q__7 Q__8 Q__9
+  Q__10 Q__11 Q__12 Q__13 Q__14 Q__15 RETN_TERM_0 RETN_TERM_1 RETN_TERM_2
+  RETN_TERM_3 RETN_TERM_4 RETN_TERM_5 RETN_TERM_6 RETN_TERM_7 RETN_TERM_8
+  RETN_TERM_9 RETN_TERM_10 RETN_TERM_11 RETN_TERM_12 RETN_TERM_13
+  RETN_TERM_14 RETN_TERM_15 RET_0 RET_1 RET_2 RET_3 RET_4 RET_5 RET_6 RET_7
+  RET_8 RET_9 RET_10 RET_11 RET_12 RET_13 RET_14 RET_15 VSS VDD
** sram_AFPIO8RL16: 176 flat devices **
XLEFTIO0 BWEI_0 BWEN CREN D_0 DNI_0 Q_0 Q__0 RET_0 RETN_TERM_0 CREN BWEN VSS
+  VDD sram_AFPIO8
XLEFTIO1 BWEI_1 BWEN CREN D_1 DNI_1 Q_1 Q__1 RET_1 RETN_TERM_1 CREN BWEN VSS
+  VDD sram_AFPIO8
XLEFTIO10 BWEI_10 BWEN CREN D_10 DNI_10 Q_10 Q__10 RET_10 RETN_TERM_10 CREN
+  BWEN VSS VDD sram_AFPIO8
XLEFTIO11 BWEI_11 BWEN CREN D_11 DNI_11 Q_11 Q__11 RET_11 RETN_TERM_11 CREN
+  BWEN VSS VDD sram_AFPIO8
XLEFTIO12 BWEI_12 BWEN CREN D_12 DNI_12 Q_12 Q__12 RET_12 RETN_TERM_12 CREN
+  BWEN VSS VDD sram_AFPIO8
XLEFTIO13 BWEI_13 BWEN CREN D_13 DNI_13 Q_13 Q__13 RET_13 RETN_TERM_13 CREN
+  BWEN VSS VDD sram_AFPIO8
XLEFTIO14 BWEI_14 BWEN CREN D_14 DNI_14 Q_14 Q__14 RET_14 RETN_TERM_14 CREN
+  BWEN VSS VDD sram_AFPIO8
XLEFTIO2 BWEI_2 BWEN CREN D_2 DNI_2 Q_2 Q__2 RET_2 RETN_TERM_2 CREN BWEN VSS
+  VDD sram_AFPIO8
XLEFTIO3 BWEI_3 BWEN CREN D_3 DNI_3 Q_3 Q__3 RET_3 RETN_TERM_3 CREN BWEN VSS
+  VDD sram_AFPIO8
XLEFTIO4 BWEI_4 BWEN CREN D_4 DNI_4 Q_4 Q__4 RET_4 RETN_TERM_4 CREN BWEN VSS
+  VDD sram_AFPIO8
XLEFTIO5 BWEI_5 BWEN CREN D_5 DNI_5 Q_5 Q__5 RET_5 RETN_TERM_5 CREN BWEN VSS
+  VDD sram_AFPIO8
XLEFTIO6 BWEI_6 BWEN CREN D_6 DNI_6 Q_6 Q__6 RET_6 RETN_TERM_6 CREN BWEN VSS
+  VDD sram_AFPIO8
XLEFTIO7 BWEI_7 BWEN CREN D_7 DNI_7 Q_7 Q__7 RET_7 RETN_TERM_7 CREN BWEN VSS
+  VDD sram_AFPIO8
XLEFTIO8 BWEI_8 BWEN CREN D_8 DNI_8 Q_8 Q__8 RET_8 RETN_TERM_8 CREN BWEN VSS
+  VDD sram_AFPIO8
XLEFTIO9 BWEI_9 BWEN CREN D_9 DNI_9 Q_9 Q__9 RET_9 RETN_TERM_9 CREN BWEN VSS
+  VDD sram_AFPIO8
XLEFTIOEXT15 BWEI_15 BWEN CREN D_15 DNI_15 Q_15 Q__15 RET_15 RETN_TERM_15 CREN
+  BWEN VSS VDD sram_AFPIO8
.ENDS sram_AFPIO8RL16
****
.SUBCKT sram_ABR32FPIO8 AI0 AI0N AI1 AI1N AI2 AI2N AI3N AI4N AI5 AI5N AI6 AI6N
+  AI7 AI7N AI8 AI8N AI9 AI9N AI10 AI10N AI11 AI11N AI12N AI13N BWEI_0 BWEI_1
+  BWEI_2 BWEI_3 BWEI_4 BWEI_5 BWEI_6 BWEI_7 BWEI_8 BWEI_9 BWEI_10 BWEI_11
+  BWEI_12 BWEI_13 BWEI_14 BWEI_15 BWEI_16 BWEI_17 BWEI_18 BWEI_19 BWEI_20
+  BWEI_21 BWEI_22 BWEI_23 BWEI_24 BWEI_25 BWEI_26 BWEI_27 BWEI_28 BWEI_29
+  BWEI_30 BWEI_31 CEI CEN CLK CREN DNI_0 DNI_1 DNI_2 DNI_3 DNI_4 DNI_5 DNI_6
+  DNI_7 DNI_8 DNI_9 DNI_10 DNI_11 DNI_12 DNI_13 DNI_14 DNI_15 DNI_16 DNI_17
+  DNI_18 DNI_19 DNI_20 DNI_21 DNI_22 DNI_23 DNI_24 DNI_25 DNI_26 DNI_27
+  DNI_28 DNI_29 DNI_30 DNI_31 D_0 D_1 D_2 D_3 D_4 D_5 D_6 D_7 D_8 D_9 D_10
+  D_11 D_12 D_13 D_14 D_15 D_16 D_17 D_18 D_19 D_20 D_21 D_22 D_23 D_24 D_25
+  D_26 D_27 D_28 D_29 D_30 D_31 EMA0 EMA1 EMA2 IRET IRETN Q_0 Q_1 Q_2 Q_3 Q_4
+  Q_5 Q_6 Q_7 Q_8 Q_9 Q_10 Q_11 Q_12 Q_13 Q_14 Q_15 Q_16 Q_17 Q_18 Q_19 Q_20
+  Q_21 Q_22 Q_23 Q_24 Q_25 Q_26 Q_27 Q_28 Q_29 Q_30 Q_31 Q__0 Q__1 Q__2 Q__3
+  Q__4 Q__5 Q__6 Q__7 Q__8 Q__9 Q__10 Q__11 Q__12 Q__13 Q__14 Q__15 Q__16
+  Q__17 Q__18 Q__19 Q__20 Q__21 Q__22 Q__23 Q__24 Q__25 Q__26 Q__27 Q__28
+  Q__29 Q__30 Q__31 RETN RETN_TERM_0 RETN_TERM_1 RETN_TERM_2 RETN_TERM_3
+  RETN_TERM_4 RETN_TERM_5 RETN_TERM_6 RETN_TERM_7 RETN_TERM_8 RETN_TERM_9
+  RETN_TERM_10 RETN_TERM_11 RETN_TERM_12 RETN_TERM_13 RETN_TERM_14
+  RETN_TERM_15 RETN_TERM_16 RETN_TERM_17 RETN_TERM_18 RETN_TERM_19
+  RETN_TERM_20 RETN_TERM_21 RETN_TERM_22 RETN_TERM_23 RETN_TERM_24
+  RETN_TERM_25 RETN_TERM_26 RETN_TERM_27 RETN_TERM_28 RETN_TERM_29
+  RETN_TERM_30 RETN_TERM_31 RET_0 RET_1 RET_2 RET_3 RET_4 RET_5 RET_6 RET_7
+  RET_8 RET_9 RET_10 RET_11 RET_12 RET_13 RET_14 RET_15 RET_16 RET_17 RET_18
+  RET_19 RET_20 RET_21 RET_22 RET_23 RET_24 RET_25 RET_26 RET_27 RET_28
+  RET_29 RET_30 RET_31 TIELOW WEI WEN VSS VDD
** sram_ABR32FPIO8: 406 flat devices **
XBOTCTRL AI0 AI0N AI1 AI1N AI2 AI2N AI3N AI4N AI5 AI5N AI6 AI6N AI7 AI7N AI8
+  AI8N AI9 AI9N AI10 AI10N AI11 AI11N AI12N AI13N CEI CEN CLK EMA0 EMA1 EMA2
+  IRET IRETN RETN CREN TIELOW WEI WEN VSS VDD sram_AFPBCTRL32M8
XLEFTIOROW BWEI_15 BWEI_14 BWEI_13 BWEI_12 BWEI_11 BWEI_10 BWEI_9 BWEI_8
+  BWEI_7 BWEI_6 BWEI_5 BWEI_4 BWEI_3 BWEI_2 BWEI_1 BWEI_0 TIELOW CREN DNI_15
+  DNI_14 DNI_13 DNI_12 DNI_11 DNI_10 DNI_9 DNI_8 DNI_7 DNI_6 DNI_5 DNI_4
+  DNI_3 DNI_2 DNI_1 DNI_0 D_15 D_14 D_13 D_12 D_11 D_10 D_9 D_8 D_7 D_6 D_5
+  D_4 D_3 D_2 D_1 D_0 Q_15 Q_14 Q_13 Q_12 Q_11 Q_10 Q_9 Q_8 Q_7 Q_6 Q_5 Q_4
+  Q_3 Q_2 Q_1 Q_0 Q__15 Q__14 Q__13 Q__12 Q__11 Q__10 Q__9 Q__8 Q__7 Q__6
+  Q__5 Q__4 Q__3 Q__2 Q__1 Q__0 RETN_TERM_15 RETN_TERM_14 RETN_TERM_13
+  RETN_TERM_12 RETN_TERM_11 RETN_TERM_10 RETN_TERM_9 RETN_TERM_8 RETN_TERM_7
+  RETN_TERM_6 RETN_TERM_5 RETN_TERM_4 RETN_TERM_3 RETN_TERM_2 RETN_TERM_1
+  RETN_TERM_0 RET_15 RET_14 RET_13 RET_12 RET_11 RET_10 RET_9 RET_8 RET_7
+  RET_6 RET_5 RET_4 RET_3 RET_2 RET_1 RET_0 VSS VDD sram_AFPIO8RL16
XRIGHTIOROW BWEI_16 BWEI_17 BWEI_18 BWEI_19 BWEI_20 BWEI_21 BWEI_22 BWEI_23
+  BWEI_24 BWEI_25 BWEI_26 BWEI_27 BWEI_28 BWEI_29 BWEI_30 BWEI_31 TIELOW CREN
+  DNI_16 DNI_17 DNI_18 DNI_19 DNI_20 DNI_21 DNI_22 DNI_23 DNI_24 DNI_25
+  DNI_26 DNI_27 DNI_28 DNI_29 DNI_30 DNI_31 D_16 D_17 D_18 D_19 D_20 D_21
+  D_22 D_23 D_24 D_25 D_26 D_27 D_28 D_29 D_30 D_31 Q_16 Q_17 Q_18 Q_19 Q_20
+  Q_21 Q_22 Q_23 Q_24 Q_25 Q_26 Q_27 Q_28 Q_29 Q_30 Q_31 Q__16 Q__17 Q__18
+  Q__19 Q__20 Q__21 Q__22 Q__23 Q__24 Q__25 Q__26 Q__27 Q__28 Q__29 Q__30
+  Q__31 RETN_TERM_16 RETN_TERM_17 RETN_TERM_18 RETN_TERM_19 RETN_TERM_20
+  RETN_TERM_21 RETN_TERM_22 RETN_TERM_23 RETN_TERM_24 RETN_TERM_25
+  RETN_TERM_26 RETN_TERM_27 RETN_TERM_28 RETN_TERM_29 RETN_TERM_30
+  RETN_TERM_31 RET_16 RET_17 RET_18 RET_19 RET_20 RET_21 RET_22 RET_23 RET_24
+  RET_25 RET_26 RET_27 RET_28 RET_29 RET_30 RET_31 VSS VDD sram_AFPIO8RR16
.ENDS sram_ABR32FPIO8
****
.SUBCKT sram_AIO8 BLTERM0 BLTERM0_ BLTERM1 BLTERM1_ BLTERM2 BLTERM2_ BLTERM3
+  BLTERM3_ BLTERM4 BLTERM4_ BLTERM5 BLTERM5_ BLTERM6 BLTERM6_ BLTERM7
+  BLTERM7_ BWEI CE_WE CREN CRENA CRENB CRENI DNI FIOGTP GDL GDLA GDLA_ GDLB
+  GDLB_ GDLI GDLI_ GDL_ IODL IODL_ IOGTP IRET IRETN Q_ RDEN TIEHIGH TIELOW WE
+  WEA WEB WEI YI YP1_0 YP1_1 YP1_2 YP1_3 YSN YSNA YSNB YSNI VSS VDD
** sram_AIO8: 172 flat devices **
M0 NET575 NET339 VSS VSS NCH W=0.2U L=0.06U M=1 $name=/tiginvpredrv/N10
M1 NET575 RDEN VSS VSS NCH W=0.2U L=0.06U M=1 $name=/tiginvpredrv/N00
M10 VDD NET615 NET477 VDD PCH W=0.83U L=0.06U M=1 $name=/tiogdlprech/P10
M100 NET550 NET408 VSS VSS NCH W=0.4U L=0.06U M=1 $name=/N43/N00
M101 NET384 NET362 WE VSS NCH W=1U L=0.06U M=1 $name=/N4/N00
M102 VSS NET550 IODL_ VSS NCH W=3U L=0.06U M=1 $name=/N38/N00
M103 GDL NET537 IODL VSS NCH W=3U L=0.06U M=1 $name=/N3/N00
M104 IODL NET540 GDLI VSS NCH W=3U L=0.06U M=1 $name=/N2/N00
M105 NET545 QIE_N VSS VSS NCH W=2.17U L=0.06U M=1 $name=/N17/N00
M106 IODW WE NET547 VSS NCH W=1.5U L=0.06U M=1 $name=/N12/N00
M107 IODW WE NET550 VSS NCH W=1.5U L=0.06U M=1 $name=/N11/N00
M108 IODL_ NET537 GDL_ VSS NCH W=3U L=0.06U M=1 $name=/N10/N00
M109 IODL_ NET540 GDLI_ VSS NCH W=3U L=0.06U M=1 $name=/N0/N00
M11 VDD IOGTPD NET477 VDD PCH W=0.83U L=0.06U M=1 $name=/tiogdlprech/P00
M110 HNET371 CREN VSS VSS NCH_HVT W=0.15U L=0.06U M=1 $name=/I244/N01
M111 NET559 CRENI HNET371 VSS NCH_HVT W=0.15U L=0.06U M=1 $name=/I244/N00
M112 VDD CREN NET559 VDD PCH_HVT W=0.15U L=0.06U M=1 $name=/I244/P10
M113 VDD CRENI NET559 VDD PCH_HVT W=0.15U L=0.06U M=1 $name=/I244/P00
M114 YILOUT NET351 VSS VSS NCH W=0.15U L=0.06U M=1 $name=/I3/N00
M115 VDD NET351 YILOUT VDD PCH W=0.3U L=0.06U M=1 $name=/I3/P00
M116 NET563 YI VSS VSS NCH W=0.15U L=0.06U M=1 $name=/I1/N00
M117 VDD YI NET563 VDD PCH W=0.15U L=0.06U M=1 $name=/I1/P00
M118 WE WELOUTN VSS VSS NCH W=2U L=0.06U M=1 $name=/weidrv/N00
M119 VDD WELOUTN WE VDD PCH W=4U L=0.06U M=1 $name=/weidrv/P00
M12 HNET143 NET591 VSS VSS NCH W=0.75U L=0.06U M=1 $name=/tgtpnd2/N01
M120 NET567 BWEI VSS VSS NCH W=0.18U L=0.06U M=1 $name=/tweinv/N00
M121 VDD BWEI NET567 VDD PCH W=0.33U L=0.06U M=1 $name=/tweinv/P00
M122 NET569 IODL_ VSS VSS NCH W=0.36U L=0.06U M=1 $name=/tqbpu2drv/N00
M123 VDD IODL_ NET569 VDD PCH W=0.7U L=0.06U M=1 $name=/tqbpu2drv/P00
M124 QILAT Q_ VSS VSS NCH W=0.24U L=0.06U M=1 $name=/tqbfbinv/N00
M125 VDD Q_ QILAT VDD PCH W=0.47U L=0.06U M=1 $name=/tqbfbinv/P00
M126 QIE_N QIE_P VSS VSS NCH W=0.36U L=0.06U M=1 $name=/tlinv/N00
M127 VDD QIE_P QIE_N VDD PCH W=0.49U L=0.06U M=1 $name=/tlinv/P00
M128 QIE_P NET575 VSS VSS NCH W=0.62U L=0.06U M=1 $name=/tiginv/N00
M129 VDD NET575 QIE_P VDD PCH W=1.2U L=0.06U M=1 $name=/tiginv/P00
M13 IOGTPD QIE_P HNET143 VSS NCH W=0.75U L=0.06U M=1 $name=/tgtpnd2/N00
M130 NET579 IOGTPD VSS VSS NCH W=0.25U L=0.06U M=1 $name=/tgtpn/N00
M131 VDD IOGTPD NET579 VDD PCH W=0.56U L=0.06U M=1 $name=/tgtpn/P00
M132 NET581 NET619 VSS VSS NCH W=0.18U L=0.06U M=1 $name=/tdinv/N00
M133 VDD NET619 NET581 VDD PCH W=0.33U L=0.06U M=1 $name=/tdinv/P00
M134 NET583 DNI VSS VSS NCH W=0.18U L=0.06U M=1 $name=/tdininv/N00
M135 VDD DNI NET583 VDD PCH W=0.33U L=0.06U M=1 $name=/tdininv/P00
M136 YSEL YSN VSS VSS NCH W=0.6U L=0.06U M=1 $name=/gyselinv/N00
M137 VDD YSN YSEL VDD PCH W=0.6U L=0.06U M=1 $name=/gyselinv/P00
M138 WELOUTN WELOUT VSS VSS NCH W=1U L=0.06U M=1 $name=/gwelat/N00
M139 VDD WELOUT WELOUTN VDD PCH W=1.4U L=0.06U M=1 $name=/gwelat/P00
M14 VDD NET591 IOGTPD VDD PCH W=0.74U L=0.06U M=1 $name=/tgtpnd2/P10
M140 WEIN NET330 VSS VSS NCH W=0.5U L=0.06U M=1 $name=/gwdly/N00
M141 VDD NET330 WEIN VDD PCH W=0.82U L=0.06U M=1 $name=/gwdly/P00
M142 NET591 IOGTP VSS VSS NCH W=0.15U L=0.06U M=1 $name=/gtp/N00
M143 VDD IOGTP NET591 VDD PCH W=0.15U L=0.06U M=1 $name=/gtp/P00
M144 NET540 NET348 VSS VSS NCH W=0.5U L=0.06U M=1 $name=/gpginv/N00
M145 VDD NET348 NET540 VDD PCH W=1U L=0.06U M=1 $name=/gpginv/P00
M146 YSN YILOUT VSS VSS NCH W=0.5U L=0.06U M=1 $name=/gpgdrv2/N00
M147 VDD YILOUT YSN VDD PCH W=1U L=0.06U M=1 $name=/gpgdrv2/P00
M148 NET597 NET509 VSS VSS NCH W=0.15U L=0.06U M=1 $name=/gpgdrv1/N00
M149 VDD NET509 NET597 VDD PCH W=0.3U L=0.06U M=1 $name=/gpgdrv1/P00
M15 VDD QIE_P IOGTPD VDD PCH W=0.74U L=0.06U M=1 $name=/tgtpnd2/P00
M150 NET537 NET345 VSS VSS NCH W=0.5U L=0.06U M=1 $name=/gnreg/N00
M151 VDD NET345 NET537 VDD PCH W=1U L=0.06U M=1 $name=/gnreg/P00
M152 NET408 WE VSS VSS NCH W=1.1U L=0.06U M=1 $name=/geninv/N00
M153 VDD WE NET408 VDD PCH W=2.8U L=0.06U M=1 $name=/geninv/P00
M154 IODW DLOUTN VSS VSS NCH W=1U L=0.06U M=1 $name=/gdndrv/N00
M155 VDD DLOUTN IODW VDD PCH W=2U L=0.06U M=1 $name=/gdndrv/P00
M156 DLOUTN DLOUT VSS VSS NCH W=0.8U L=0.06U M=1 $name=/gdlat/N00
M157 VDD DLOUT DLOUTN VDD PCH W=1.97U L=0.06U M=1 $name=/gdlat/P00
M158 NET607 DLOUTN VSS VSS NCH W=0.58U L=0.06U M=1 $name=/gddrvb/N00
M159 VDD DLOUTN NET607 VDD PCH W=1.14U L=0.06U M=1 $name=/gddrvb/P00
M16 HNET147 IOGTP VSS VSS NCH W=0.15U L=0.06U M=1 $name=/tfiogtpnd2/N01
M160 IODW_ NET607 VSS VSS NCH W=1U L=0.06U M=1 $name=/gddrv/N00
M161 VDD NET607 IODW_ VDD PCH W=2U L=0.06U M=1 $name=/gddrv/P00
M162 DIN NET613 VSS VSS NCH W=0.5U L=0.06U M=1 $name=/gddly2/N00
M163 VDD NET613 DIN VDD PCH W=1U L=0.06U M=1 $name=/gddly2/P00
M164 NET613 NET581 VSS VSS NCH W=0.18U L=0.06U M=1 $name=/gddly/N00
M165 VDD NET581 NET613 VDD PCH W=0.33U L=0.06U M=1 $name=/gddly/P00
M166 NET615 FIOGTP VSS VSS NCH W=0.15U L=0.06U M=1 $name=/I34/N00
M167 VDD FIOGTP NET615 VDD PCH W=0.15U L=0.06U M=1 $name=/I34/P00
M168 NET617 NET567 VSS VSS NCH W=0.18U L=0.06U M=1 $name=/I12/N00
M169 VDD NET567 NET617 VDD PCH W=0.33U L=0.06U M=1 $name=/I12/P00
M17 NET339 NET615 HNET147 VSS NCH W=0.15U L=0.06U M=1 $name=/tfiogtpnd2/N00
M170 NET619 NET583 VSS VSS NCH W=0.18U L=0.06U M=1 $name=/I10/N00
M171 VDD NET583 NET619 VDD PCH W=0.33U L=0.06U M=1 $name=/I10/P00
M18 VDD IOGTP NET339 VDD PCH W=0.2U L=0.06U M=1 $name=/tfiogtpnd2/P10
M19 VDD NET615 NET339 VDD PCH W=0.2U L=0.06U M=1 $name=/tfiogtpnd2/P00
M2 VDD NET339 HNET128 VDD PCH W=0.4U L=0.06U M=1 $name=/tiginvpredrv/P01
M20 HNET151 NET384 VSS VSS NCH W=1U L=0.06U M=1 $name=/gweio/N01
M21 NET342 NET597 HNET151 VSS NCH W=1U L=0.06U M=1 $name=/gweio/N00
M22 VDD NET384 NET342 VDD PCH W=0.8U L=0.06U M=1 $name=/gweio/P10
M23 VDD NET597 NET342 VDD PCH W=0.8U L=0.06U M=1 $name=/gweio/P00
M24 HNET155 NET362 VSS VSS NCH W=1U L=0.06U M=1 $name=/gpreg/N01
M25 NET345 YSEL HNET155 VSS NCH W=1U L=0.06U M=1 $name=/gpreg/N00
M26 VDD NET362 NET345 VDD PCH W=1U L=0.06U M=1 $name=/gpreg/P10
M27 VDD YSEL NET345 VDD PCH W=1U L=0.06U M=1 $name=/gpreg/P00
M28 HNET159 NET364 VSS VSS NCH W=1U L=0.06U M=1 $name=/gpnand/N01
M29 NET348 YSEL HNET159 VSS NCH W=1U L=0.06U M=1 $name=/gpnand/N00
M3 HNET128 RDEN NET575 VDD PCH W=0.4U L=0.06U M=1 $name=/tiginvpredrv/P00
M30 VDD NET364 NET348 VDD PCH W=1U L=0.06U M=1 $name=/gpnand/P10
M31 VDD YSEL NET348 VDD PCH W=1U L=0.06U M=1 $name=/gpnand/P00
M32 HNET166 YILOUT VSS VSS NCH W=0.15U L=0.06U M=1 $name=/I2/NI00
M33 NET351 IOGTPD HNET166 VSS NCH W=0.15U L=0.06U M=1 $name=/I2/NE00
M34 HNET161 NET579 NET351 VDD PCH W=0.15U L=0.06U M=1 $name=/I2/PE00
M35 VDD YILOUT HNET161 VDD PCH W=0.15U L=0.06U M=1 $name=/I2/PI00
M36 HNET172 WELOUTN VSS VSS NCH W=0.15U L=0.06U M=1 $name=/gwelatfb/NI00
M37 WELOUT IOGTPD HNET172 VSS NCH W=0.15U L=0.06U M=1 $name=/gwelatfb/NE00
M38 HNET167 NET579 WELOUT VDD PCH W=0.15U L=0.06U M=1 $name=/gwelatfb/PE00
M39 VDD WELOUTN HNET167 VDD PCH W=0.15U L=0.06U M=1 $name=/gwelatfb/PI00
M4 HNET135 NET617 VSS VSS NCH W=0.25U L=0.06U M=1 $name=/wnand/N01
M40 HNET178 DLOUTN VSS VSS NCH W=0.15U L=0.06U M=1 $name=/gdlatfb/NI00
M41 DLOUT IOGTPD HNET178 VSS NCH W=0.15U L=0.06U M=1 $name=/gdlatfb/NE00
M42 HNET173 NET579 DLOUT VDD PCH W=0.15U L=0.06U M=1 $name=/gdlatfb/PE00
M43 VDD DLOUTN HNET173 VDD PCH W=0.15U L=0.06U M=1 $name=/gdlatfb/PI00
M44 NET362 NET559 VSS VSS NCH_HVT W=0.15U L=0.06U M=1 $name=/tcrend/N00
M45 VDD NET559 NET362 VDD PCH_HVT W=0.15U L=0.06U M=1 $name=/tcrend/P00
M46 NET364 NET362 VSS VSS NCH_HVT W=0.15U L=0.06U M=1 $name=/gcrendd/N00
M47 VDD NET362 NET364 VDD PCH_HVT W=0.3U L=0.06U M=1 $name=/gcrendd/P00
M48 Q_ IRETN VDD VDD PCH_HVT W=1.06U L=0.06U M=1 $name=/tqbpuretn/P00
M49 NET373 QILAT Q_ VDD PCH_HVT W=1.06U L=0.06U M=1 $name=/tqbpu2/P00
M5 NET330 CE_WE HNET135 VSS NCH W=0.25U L=0.06U M=1 $name=/wnand/N00
M50 VDD QIE_N NET373 VDD PCH_HVT W=1.06U L=0.06U M=1 $name=/P35/P00
M51 VDD NET569 NET373 VDD PCH_HVT W=1.06U L=0.06U M=1 $name=/P33/P00
M52 WELOUT IOGTPD WEIN VDD PCH W=0.49U L=0.06U M=1 $name=/wpgp/P00
M53 NET383 IODL Q_ VDD PCH W=2.13U L=0.06U M=1 $name=/tqbpu/P00
M54 VDD NET384 NET419 VDD PCH W=1U L=0.06U M=1 $name=/tpswitch/P00
M55 VDD NET477 GDLPRE VDD PCH W=1.5U L=0.06U M=1 $name=/tppreb/P00
M56 VDD NET342 GDLPRE VDD PCH W=1.5U L=0.06U M=1 $name=/tpprea/P00
M57 YSN NET364 NET509 VDD PCH W=0.2U L=0.06U M=1 $name=/tppg2/P00
M58 YSNI NET362 NET509 VDD PCH W=0.2U L=0.06U M=1 $name=/tppg1/P00
M59 NET351 IOGTPD NET563 VDD PCH W=0.2U L=0.06U M=1 $name=/tpgp2/P00
M6 VDD NET617 NET330 VDD PCH W=0.25U L=0.06U M=1 $name=/wnand/P10
M60 DLOUT IOGTPD DIN VDD PCH W=0.49U L=0.06U M=1 $name=/tpdpass/P00
M61 VDD WE NET406 VDD PCH W=1U L=0.06U M=1 $name=/tgdlpukp/P00
M62 NET406 NET408 IODW_ VDD PCH W=1.5U L=0.06U M=1 $name=/tgdlppgp/P00
M63 VDD GDLPRE GDL VDD PCH W=3U L=0.06U M=1 $name=/tgdlpch/P00
M64 NET518 NET408 IODW_ VDD PCH W=1.5U L=0.06U M=1 $name=/tgdlnpgp/P00
M65 NET419 GDL_ GDL VDD PCH W=1U L=0.06U M=1 $name=/tgdlkeeperio/P00
M66 GDL GDLPRE GDL_ VDD PCH W=3U L=0.06U M=1 $name=/tgdleq/P00
M67 IODL NET406 VDD VDD PCH W=5U L=0.06U M=1 $name=/tgdldrvp/P00
M68 NET419 GDL GDL_ VDD PCH W=1U L=0.06U M=1 $name=/tgdlbkeeper/P00
M69 NET550 NET408 IODW VDD PCH W=1.5U L=0.06U M=1 $name=/P7/P00
M7 VDD CE_WE NET330 VDD PCH W=0.25U L=0.06U M=1 $name=/wnand/P00
M70 WEI NET362 NET384 VDD PCH W=1U L=0.06U M=1 $name=/P6/P00
M71 VDD WE NET547 VDD PCH W=1U L=0.06U M=1 $name=/P55/P00
M72 WE NET364 NET384 VDD PCH W=1U L=0.06U M=1 $name=/P5/P00
M73 IODL_ NET547 VDD VDD PCH W=5U L=0.06U M=1 $name=/P43/P00
M74 GDL_ NET345 IODL_ VDD PCH W=3U L=0.06U M=1 $name=/P4/P00
M75 IODL NET345 GDL VDD PCH W=3U L=0.06U M=1 $name=/P3/P00
M76 VDD GDLPRE GDL_ VDD PCH W=3U L=0.06U M=1 $name=/P2/P00
M77 VDD QIE_P NET464 VDD PCH W=2.13U L=0.06U M=1 $name=/P18/P00
M78 VDD QIE_P NET383 VDD PCH W=2.13U L=0.06U M=1 $name=/P13/P00
M79 NET547 NET408 IODW VDD PCH W=1.5U L=0.06U M=1 $name=/P12/P00
M8 HNET139 NET615 VSS VSS NCH W=0.84U L=0.06U M=1 $name=/tiogdlprech/N01
M80 NET464 IODL Q_ VDD PCH W=2.13U L=0.06U M=1 $name=/P11/P00
M81 GDLI NET348 IODL VDD PCH W=3U L=0.06U M=1 $name=/P1/P00
M82 GDLI_ NET348 IODL_ VDD PCH W=3U L=0.06U M=1 $name=/P0/P00
M83 VSS IRETN NET490 VSS NCH_HVT W=1U L=0.06U M=1 $name=/tqbpdretn/N00
M84 Q_ QILAT NET491 VSS NCH_HVT W=1U L=0.06U M=1 $name=/tqbpd2/N00
M85 NET491 QIE_P NET490 VSS NCH_HVT W=1U L=0.06U M=1 $name=/N20/N00
M86 NET491 IODL NET490 VSS NCH_HVT W=1U L=0.06U M=1 $name=/N18/N00
M87 WEIN NET579 WELOUT VSS NCH W=0.5U L=0.06U M=1 $name=/wpgn/N00
M88 Q_ NET569 NET545 VSS NCH W=2.17U L=0.06U M=1 $name=/tqbpd/N00
M89 NET563 NET579 NET351 VSS NCH W=0.2U L=0.06U M=1 $name=/tpgn2/N00
M9 NET477 IOGTPD HNET139 VSS NCH W=0.84U L=0.06U M=1 $name=/tiogdlprech/N00
M90 NET481 NET477 VSS VSS NCH W=1.5U L=0.06U M=1 $name=/tnpreb/N00
M91 GDLPRE NET342 NET481 VSS NCH W=1.5U L=0.06U M=1 $name=/tnprea/N00
M92 NET509 NET362 YSN VSS NCH W=0.2U L=0.06U M=1 $name=/tnpg2/N00
M93 NET509 NET364 YSNI VSS NCH W=0.2U L=0.06U M=1 $name=/tnpg1/N00
M94 DIN NET579 DLOUT VSS NCH W=0.5U L=0.06U M=1 $name=/tndpass/N00
M95 IODW_ WE NET406 VSS NCH W=1.5U L=0.06U M=1 $name=/tgdlppgn/N00
M96 NET518 NET408 VSS VSS NCH W=0.4U L=0.06U M=1 $name=/tgdlpdkp/N00
M97 IODW_ WE NET518 VSS NCH W=1.5U L=0.06U M=1 $name=/tgdlnpgn/N00
M98 VSS NET518 IODL VSS NCH W=3U L=0.06U M=1 $name=/tgdldrvn/N00
M99 NET384 NET364 WEI VSS NCH W=1U L=0.06U M=1 $name=/N9/N00
.ENDS sram_AIO8
****
.SUBCKT sram_AIO8EDGE CE_WE_TERM CRENA_TERM FIOGTP_TERM GDLA_TERM GDLA__TERM
+  IOGTP_TERM IRETN_TERM IRET_TERM PG_TERM TIEHIGH TIELOW TIELOW_TERM WE_TERM
+  YP0_TERM YP1_TERM YP2_TERM YP3_TERM YSNA_TERM VSS VDD
** sram_AIO8EDGE: 4 flat devices **
M0 VDD TIEHIGH TIEHIGH VDD PCH W=0.15U L=0.06U M=1 $name=/P1/P00
M1 VDD TIELOW TIEHIGH VDD PCH W=4.9U L=0.06U M=1 $name=/P0/P00
M2 TIELOW TIEHIGH VSS VSS NCH W=3.15U L=0.06U M=1 $name=/tioarefn/N00
M3 TIELOW TIELOW VSS VSS NCH W=0.15U L=0.06U M=1 $name=/N3/N00
.ENDS sram_AIO8EDGE
****
.SUBCKT sram_AIO8RR16 BLTERM0_0 BLTERM0_1 BLTERM0_2 BLTERM0_3 BLTERM0_4
+  BLTERM0_5 BLTERM0_6 BLTERM0_7 BLTERM0_8 BLTERM0_9 BLTERM0_10 BLTERM0_11
+  BLTERM0_12 BLTERM0_13 BLTERM0_14 BLTERM0_15 BLTERM0__0 BLTERM0__1
+  BLTERM0__2 BLTERM0__3 BLTERM0__4 BLTERM0__5 BLTERM0__6 BLTERM0__7
+  BLTERM0__8 BLTERM0__9 BLTERM0__10 BLTERM0__11 BLTERM0__12 BLTERM0__13
+  BLTERM0__14 BLTERM0__15 BLTERM1_0 BLTERM1_1 BLTERM1_2 BLTERM1_3 BLTERM1_4
+  BLTERM1_5 BLTERM1_6 BLTERM1_7 BLTERM1_8 BLTERM1_9 BLTERM1_10 BLTERM1_11
+  BLTERM1_12 BLTERM1_13 BLTERM1_14 BLTERM1_15 BLTERM1__0 BLTERM1__1
+  BLTERM1__2 BLTERM1__3 BLTERM1__4 BLTERM1__5 BLTERM1__6 BLTERM1__7
+  BLTERM1__8 BLTERM1__9 BLTERM1__10 BLTERM1__11 BLTERM1__12 BLTERM1__13
+  BLTERM1__14 BLTERM1__15 BLTERM2_0 BLTERM2_1 BLTERM2_2 BLTERM2_3 BLTERM2_4
+  BLTERM2_5 BLTERM2_6 BLTERM2_7 BLTERM2_8 BLTERM2_9 BLTERM2_10 BLTERM2_11
+  BLTERM2_12 BLTERM2_13 BLTERM2_14 BLTERM2_15 BLTERM2__0 BLTERM2__1
+  BLTERM2__2 BLTERM2__3 BLTERM2__4 BLTERM2__5 BLTERM2__6 BLTERM2__7
+  BLTERM2__8 BLTERM2__9 BLTERM2__10 BLTERM2__11 BLTERM2__12 BLTERM2__13
+  BLTERM2__14 BLTERM2__15 BLTERM3_0 BLTERM3_1 BLTERM3_2 BLTERM3_3 BLTERM3_4
+  BLTERM3_5 BLTERM3_6 BLTERM3_7 BLTERM3_8 BLTERM3_9 BLTERM3_10 BLTERM3_11
+  BLTERM3_12 BLTERM3_13 BLTERM3_14 BLTERM3_15 BLTERM3__0 BLTERM3__1
+  BLTERM3__2 BLTERM3__3 BLTERM3__4 BLTERM3__5 BLTERM3__6 BLTERM3__7
+  BLTERM3__8 BLTERM3__9 BLTERM3__10 BLTERM3__11 BLTERM3__12 BLTERM3__13
+  BLTERM3__14 BLTERM3__15 BLTERM4_0 BLTERM4_1 BLTERM4_2 BLTERM4_3 BLTERM4_4
+  BLTERM4_5 BLTERM4_6 BLTERM4_7 BLTERM4_8 BLTERM4_9 BLTERM4_10 BLTERM4_11
+  BLTERM4_12 BLTERM4_13 BLTERM4_14 BLTERM4_15 BLTERM4__0 BLTERM4__1
+  BLTERM4__2 BLTERM4__3 BLTERM4__4 BLTERM4__5 BLTERM4__6 BLTERM4__7
+  BLTERM4__8 BLTERM4__9 BLTERM4__10 BLTERM4__11 BLTERM4__12 BLTERM4__13
+  BLTERM4__14 BLTERM4__15 BLTERM5_0 BLTERM5_1 BLTERM5_2 BLTERM5_3 BLTERM5_4
+  BLTERM5_5 BLTERM5_6 BLTERM5_7 BLTERM5_8 BLTERM5_9 BLTERM5_10 BLTERM5_11
+  BLTERM5_12 BLTERM5_13 BLTERM5_14 BLTERM5_15 BLTERM5__0 BLTERM5__1
+  BLTERM5__2 BLTERM5__3 BLTERM5__4 BLTERM5__5 BLTERM5__6 BLTERM5__7
+  BLTERM5__8 BLTERM5__9 BLTERM5__10 BLTERM5__11 BLTERM5__12 BLTERM5__13
+  BLTERM5__14 BLTERM5__15 BLTERM6_0 BLTERM6_1 BLTERM6_2 BLTERM6_3 BLTERM6_4
+  BLTERM6_5 BLTERM6_6 BLTERM6_7 BLTERM6_8 BLTERM6_9 BLTERM6_10 BLTERM6_11
+  BLTERM6_12 BLTERM6_13 BLTERM6_14 BLTERM6_15 BLTERM6__0 BLTERM6__1